Version 4
SHEET 1 2688 1108
WIRE 240 16 240 -32
WIRE 208 32 -112 32
WIRE 336 48 272 48
WIRE 400 48 336 48
WIRE 784 48 592 48
WIRE 208 64 80 64
WIRE 880 64 832 64
WIRE 784 80 720 80
WIRE 880 96 880 64
WIRE 928 96 880 96
WIRE 1392 112 976 112
WIRE 240 128 240 80
WIRE 928 128 864 128
WIRE 1536 128 1456 128
WIRE -272 144 -272 64
WIRE 1392 144 1344 144
WIRE 336 160 336 48
WIRE 896 160 336 160
WIRE 880 176 336 176
WIRE 864 192 864 128
WIRE 864 192 768 192
WIRE 896 208 896 160
WIRE 1056 208 896 208
WIRE 1200 224 1104 224
WIRE -272 240 -272 224
WIRE -112 240 -112 32
WIRE -112 240 -272 240
WIRE 880 240 880 176
WIRE 1056 240 880 240
WIRE 1344 240 1344 144
WIRE 1344 240 1248 240
WIRE -272 256 -272 240
WIRE 1200 256 1168 256
WIRE 208 288 -144 288
WIRE 432 288 368 288
WIRE 720 288 720 80
WIRE 720 288 624 288
WIRE 336 304 336 176
WIRE 336 304 272 304
WIRE 368 304 368 288
WIRE 368 304 336 304
WIRE 1168 304 1168 256
WIRE 1168 304 1072 304
WIRE 80 320 80 64
WIRE 208 320 80 320
WIRE -272 352 -272 336
WIRE -144 352 -144 288
WIRE -144 352 -272 352
WIRE 240 352 240 336
WIRE -272 368 -272 352
WIRE 1072 400 1072 304
WIRE 1072 400 336 400
WIRE 768 416 768 192
WIRE 768 416 576 416
WIRE 336 464 336 400
WIRE 576 464 576 416
WIRE 576 464 336 464
WIRE -272 480 -272 448
WIRE 208 480 -272 480
WIRE 336 496 336 464
WIRE 336 496 272 496
WIRE 80 512 80 320
WIRE 208 512 80 512
WIRE 368 512 368 304
WIRE 528 512 368 512
WIRE 656 528 576 528
WIRE -400 544 -560 544
WIRE 336 544 336 496
WIRE 528 544 336 544
WIRE -560 624 -560 544
WIRE -272 624 -272 560
WIRE -400 704 -400 544
WIRE 80 704 80 512
WIRE 80 704 -400 704
FLAG -272 624 0
FLAG 240 528 0
FLAG 240 352 0
FLAG 240 128 0
FLAG 240 -32 Vcc
IOPIN 240 -32 In
FLAG 240 272 Vcc
IOPIN 240 272 In
FLAG 240 464 Vcc
IOPIN 240 464 In
FLAG -272 64 Vref
IOPIN -272 64 In
FLAG 1536 128 LSB
IOPIN 1536 128 Out
FLAG 656 528 MSB
IOPIN 656 528 Out
FLAG -560 624 Vin
IOPIN -560 624 In
FLAG 480 128 0
FLAG 480 -16 VDD
IOPIN 480 -16 In
FLAG 544 576 VDD
IOPIN 544 576 In
FLAG 512 368 0
FLAG 512 224 VDD
IOPIN 512 224 In
FLAG 800 112 VDD
IOPIN 800 112 In
FLAG 944 160 VDD
IOPIN 944 160 In
FLAG 1072 272 VDD
IOPIN 1072 272 In
FLAG 1216 288 VDD
IOPIN 1216 288 In
FLAG 1392 192 VDD
IOPIN 1392 192 In
SYMBOL res -288 128 R0
SYMATTR InstName R1
SYMATTR Value 1K
SYMBOL res -288 240 R0
SYMATTR InstName R2
SYMATTR Value 1K
SYMBOL res -288 352 R0
SYMATTR InstName R3
SYMATTR Value 1K
SYMBOL res -288 464 R0
SYMATTR InstName R4
SYMATTR Value 1K
SYMBOL OpAmps\\UniversalOpAmp3 240 496 R0
SYMATTR InstName U1
SYMBOL OpAmps\\UniversalOpAmp3 240 304 R0
SYMATTR InstName U2
SYMBOL OpAmps\\UniversalOpAmp3 240 48 R0
SYMATTR InstName U3
SYMBOL INVERTER 432 48 R0
SYMATTR InstName X2
SYMBOL INVERTER 464 288 R0
SYMATTR InstName X3
SYMBOL AND_T 880 64 R0
SYMATTR InstName X4
SYMBOL AND_T 624 528 R0
SYMATTR InstName X5
SYMBOL AND_T 1024 112 R0
SYMATTR InstName X6
SYMBOL AND_T 1152 224 R0
SYMATTR InstName X7
SYMBOL AND_T 1296 240 R0
SYMATTR InstName X8
SYMBOL OR_T 1520 128 R0
SYMATTR InstName X1
