Version 4
SHEET 1 880 680
WIRE 160 96 160 64
WIRE 160 96 96 96
WIRE 240 96 160 96
WIRE 96 112 96 96
WIRE 48 144 16 144
WIRE 160 160 144 160
WIRE 416 160 352 160
WIRE 48 176 16 176
WIRE 96 304 96 208
WIRE 160 304 96 304
WIRE 240 304 240 240
WIRE 240 304 160 304
WIRE 160 336 160 304
FLAG 416 160 Out
IOPIN 416 160 Out
FLAG 16 144 A
IOPIN 16 144 In
FLAG 16 176 B
IOPIN 16 176 In
FLAG 160 64 VDD
IOPIN 160 64 In
FLAG 160 336 0
SYMBOL NAND 64 160 R0
SYMATTR InstName X2
SYMBOL INVERTER 192 160 R0
SYMATTR InstName X1
