Version 4
SHEET 1 1016 680
WIRE -672 112 -736 112
WIRE -160 112 -480 112
WIRE 240 144 160 144
WIRE 160 160 160 144
WIRE 160 160 -32 160
WIRE 432 160 368 160
WIRE -160 208 -224 208
WIRE -592 304 -592 192
FLAG 240 176 VDD
IOPIN 240 176 In
FLAG -160 176 VDD
IOPIN -160 176 In
FLAG -160 144 D
IOPIN -160 144 In
FLAG 240 112 Clock
IOPIN 240 112 In
FLAG 432 160 Q
IOPIN 432 160 Out
FLAG -592 48 VDD
IOPIN -592 48 In
FLAG -736 112 Clock
IOPIN -736 112 In
FLAG 240 208 VSS
IOPIN 240 208 In
FLAG -224 208 VSS
IOPIN -224 208 In
FLAG -592 304 VSS
IOPIN -592 304 In
SYMBOL Latch1_T 304 160 R0
SYMATTR InstName Latch2_T
SYMBOL Latch1_T -96 160 R0
SYMATTR InstName Latch1_T
SYMBOL INVERTER -640 112 R0
SYMATTR InstName X3
