Version 4
SHEET 1 968 884
WIRE -16 96 -16 -96
WIRE -16 96 -32 96
WIRE 272 96 272 -96
WIRE 272 96 240 96
WIRE 544 96 544 -96
WIRE 544 96 512 96
WIRE 848 96 848 -96
WIRE 848 96 784 96
FLAG -1216 640 0
FLAG -1216 416 0
FLAG -1216 112 0
FLAG -1216 32 D1
IOPIN -1216 32 Out
FLAG -1216 336 D2
IOPIN -1216 336 Out
FLAG -1216 560 D3
IOPIN -1216 560 Out
FLAG -160 80 D1
IOPIN -160 80 Out
FLAG 112 80 D2
IOPIN 112 80 Out
FLAG 384 80 D3
IOPIN 384 80 Out
FLAG 656 80 D4
IOPIN 656 80 Out
FLAG -1200 864 0
FLAG -1200 784 D4
IOPIN -1200 784 Out
FLAG -1216 -192 0
FLAG -1216 -272 control
IOPIN -1216 -272 Out
FLAG -160 48 control
IOPIN -160 48 Out
FLAG 112 48 control
IOPIN 112 48 Out
FLAG 384 48 control
IOPIN 384 48 Out
FLAG 656 48 control
IOPIN 656 48 Out
FLAG -800 -192 0
FLAG -800 -272 VDD
IOPIN -800 -272 Out
FLAG -160 112 VDD
IOPIN -160 112 Out
FLAG 112 112 VDD
IOPIN 112 112 Out
FLAG 384 112 VDD
IOPIN 384 112 Out
FLAG 656 112 VDD
IOPIN 656 112 Out
FLAG -160 144 0
FLAG 112 144 0
FLAG 384 144 0
FLAG 656 144 0
FLAG -16 -96 stored_D1
IOPIN -16 -96 Out
FLAG 272 -96 stored_D2
IOPIN 272 -96 Out
FLAG 544 -96 stored_D3
IOPIN 544 -96 Out
FLAG 848 -96 stored_D4
IOPIN 848 -96 Out
SYMBOL DFLIPFLOP -96 96 R0
SYMATTR InstName X1
SYMBOL DFLIPFLOP 176 96 R0
SYMATTR InstName X2
SYMBOL DFLIPFLOP 448 96 R0
SYMATTR InstName X3
SYMBOL DFLIPFLOP 720 96 R0
SYMATTR InstName X4
SYMBOL voltage -1216 16 R0
WINDOW 123 0 0 Left 0
WINDOW 39 0 0 Left 0
SYMATTR InstName V1
SYMATTR Value PULSE(5 0 0 1p 1p 1m 2m)
SYMBOL voltage -1216 320 R0
WINDOW 123 0 0 Left 0
WINDOW 39 0 0 Left 0
SYMATTR InstName V2
SYMATTR Value PULSE(0 5 0.2m 1p 1p 0.5m 1m)
SYMBOL voltage -1216 544 R0
SYMATTR InstName V3
SYMATTR Value PULSE(0 5 0.2m 1p 1p 0.5m 1m)
SYMBOL voltage -1200 768 R0
SYMATTR InstName V4
SYMATTR Value PULSE(0 5 0.2m 1p 1p 0.5m 1m)
SYMBOL voltage -1216 -288 R0
WINDOW 123 0 0 Left 0
WINDOW 39 0 0 Left 0
SYMATTR InstName V5
SYMATTR Value PULSE(0 5 0 1p 1p 0.5m 1m)
SYMBOL voltage -800 -288 R0
WINDOW 123 0 0 Left 0
WINDOW 39 0 0 Left 0
SYMATTR InstName V6
SYMATTR Value 5
TEXT -1280 192 Left 2 !.tran 0.01
