Version 4
SHEET 1 1796 1592
WIRE 1152 -304 1072 -304
WIRE 1616 -272 1600 -272
WIRE 160 -176 64 -176
WIRE 64 96 64 -176
WIRE 64 96 -32 96
WIRE 1072 112 1072 -304
WIRE 1072 112 960 112
WIRE 1600 112 1600 -272
WIRE 1600 112 1440 112
WIRE 576 128 576 -192
WIRE 576 128 512 128
FLAG -160 80 D1
IOPIN -160 80 Out
FLAG 384 112 D2
IOPIN 384 112 Out
FLAG 832 96 D3
IOPIN 832 96 Out
FLAG 1312 96 D4
IOPIN 1312 96 Out
FLAG -160 48 control
IOPIN -160 48 Out
FLAG 384 80 control
IOPIN 384 80 Out
FLAG 832 64 control
IOPIN 832 64 Out
FLAG 1312 64 control
IOPIN 1312 64 Out
FLAG -160 112 VDD
IOPIN -160 112 Out
FLAG 384 144 VDD
IOPIN 384 144 Out
FLAG 832 128 VDD
IOPIN 832 128 Out
FLAG 1312 128 VDD
IOPIN 1312 128 Out
FLAG -160 144 0
FLAG 384 176 0
FLAG 832 160 0
FLAG 1312 160 0
FLAG 160 -176 stored_D1
IOPIN 160 -176 Out
FLAG 576 -192 stored_D2
IOPIN 576 -192 Out
FLAG 1152 -304 stored_D3
IOPIN 1152 -304 Out
FLAG 1616 -272 stored_D4
IOPIN 1616 -272 Out
SYMBOL DFLIPFLOP -96 96 R0
SYMATTR InstName X1
SYMBOL DFLIPFLOP 448 128 R0
SYMATTR InstName X2
SYMBOL DFLIPFLOP 896 112 R0
SYMATTR InstName X3
SYMBOL DFLIPFLOP 1376 112 R0
SYMATTR InstName X4
