Version 4
SHEET 1 2416 1192
WIRE 1264 -96 1264 -112
WIRE 1568 -96 1568 -160
WIRE 960 -32 832 -32
WIRE 1184 -32 960 -32
WIRE 1488 -32 1376 -32
WIRE 1856 -32 1680 -32
WIRE 2032 -32 1856 -32
WIRE 704 16 704 -80
WIRE 576 112 400 112
WIRE 832 112 832 -32
WIRE 704 368 704 224
WIRE 960 432 960 -32
WIRE 1312 432 960 432
WIRE 1856 432 1856 -32
WIRE 1856 432 1568 432
WIRE 640 480 576 480
WIRE 704 672 704 560
WIRE 1440 736 1440 528
WIRE 1376 848 1280 848
WIRE 1440 1072 1440 928
FLAG 1264 -112 VDD
IOPIN 1264 -112 In
FLAG 1568 -160 VDD
IOPIN 1568 -160 In
FLAG 400 112 D
IOPIN 400 112 In
FLAG 704 672 Clock
IOPIN 704 672 In
FLAG 704 -80 Clock
IOPIN 704 -80 In
FLAG 1440 320 Clock
IOPIN 1440 320 In
FLAG 1440 1072 Clock
IOPIN 1440 1072 In
FLAG 576 480 VDD
IOPIN 576 480 In
FLAG 2032 -32 Q
IOPIN 2032 -32 Out
FLAG 1280 848 VDD
IOPIN 1280 848 In
FLAG 784 480 0
FLAG 1264 48 0
FLAG 1568 48 0
FLAG 1520 848 0
SYMBOL INVERTER 1216 -32 R0
SYMATTR InstName X1
SYMBOL INVERTER 1520 -32 R0
SYMATTR InstName X2
SYMBOL INVERTER 1440 896 R270
SYMATTR InstName X3
SYMBOL INVERTER 704 528 R270
SYMATTR InstName X4
SYMBOL TG_NEW 1408 432 M180
SYMATTR InstName X5
SYMBOL TG_NEW 672 112 R0
SYMATTR InstName X6
