Version 4
SHEET 1 880 680
WIRE -416 -224 -416 -272
WIRE -416 -224 -592 -224
WIRE -64 -224 -416 -224
WIRE -416 -176 -416 -224
WIRE -496 -112 -528 -112
WIRE -240 -112 -304 -112
WIRE -64 32 -64 -224
WIRE -416 48 -416 -32
WIRE -256 48 -416 48
WIRE -240 64 -240 -112
WIRE -112 64 -240 64
WIRE 16 80 -16 80
WIRE -112 96 -304 96
WIRE -416 128 -416 48
WIRE -256 176 -256 48
WIRE -64 176 -64 128
WIRE -64 176 -256 176
WIRE -496 208 -544 208
WIRE -304 208 -304 96
WIRE -64 256 -64 176
WIRE -592 368 -592 -224
WIRE -416 368 -416 272
WIRE -416 368 -592 368
FLAG -528 -112 A
IOPIN -528 -112 In
FLAG -544 208 B
IOPIN -544 208 In
FLAG 16 80 Out
IOPIN 16 80 Out
FLAG -416 -272 Vdd
IOPIN -416 -272 In
FLAG -64 256 0
SYMBOL INVERTER -464 -112 R0
SYMATTR InstName X4
SYMBOL INVERTER -464 208 M180
SYMATTR InstName X5
SYMBOL NAND -96 80 R0
SYMATTR InstName X6
