Version 4
SHEET 1 1808 680
WIRE 832 -320 480 -320
WIRE 960 -320 832 -320
WIRE 1136 -320 1040 -320
WIRE 1360 -320 1136 -320
WIRE 832 -160 832 -320
WIRE 1136 -160 1136 -320
WIRE 1360 -144 1360 -320
WIRE 832 16 832 -80
WIRE 1136 16 1136 -80
WIRE 976 64 912 64
WIRE 1280 64 1216 64
WIRE 1520 112 1456 112
WIRE 1632 112 1600 112
WIRE 800 192 800 160
WIRE 976 192 976 64
WIRE 976 192 800 192
WIRE 1104 192 1104 160
WIRE 1280 192 1280 64
WIRE 1280 192 1104 192
WIRE 864 224 864 160
WIRE 1168 224 1168 160
WIRE 1168 224 864 224
WIRE 1456 224 1456 112
WIRE 1456 224 1168 224
WIRE 1504 224 1456 224
WIRE 1632 240 1632 112
WIRE 1632 240 1568 240
WIRE 1696 240 1632 240
WIRE 1504 256 1456 256
WIRE 1456 304 1456 256
FLAG 1360 -64 0
FLAG 480 -320 VREF
IOPIN 480 -320 In
FLAG 1536 208 Vs
IOPIN 1536 208 In
FLAG 1536 272 Vs_
IOPIN 1536 272 In
FLAG 1696 240 Vout
IOPIN 1696 240 Out
FLAG 1456 304 0
FLAG 1216 128 D0
IOPIN 1216 128 In
FLAG 1280 192 0
FLAG 912 128 D1
IOPIN 912 128 In
FLAG 976 192 0
SYMBOL SPDT 1136 64 M90
SYMATTR InstName X4
SYMBOL res 816 -176 R0
SYMATTR InstName R3
SYMATTR Value 2k
SYMBOL res 1120 -176 R0
SYMATTR InstName R4
SYMATTR Value 2k
SYMBOL res 1344 -160 R0
SYMATTR InstName R5
SYMATTR Value 2k
SYMBOL res 1056 -336 R90
WINDOW 0 0 56 VBottom 2
WINDOW 3 32 56 VTop 2
SYMATTR InstName R6
SYMATTR Value 1k
SYMBOL res 1616 96 R90
WINDOW 0 0 56 VBottom 2
WINDOW 3 32 56 VTop 2
SYMATTR InstName Rf
SYMATTR Value 1k
SYMBOL OpAmps\\UniversalOpAmp 1536 240 R0
SYMATTR InstName U1
SYMBOL SPDT 832 64 M90
SYMATTR InstName X2
