Version 4
SHEET 1 2352 1016
WIRE 208 -176 -64 -176
WIRE 400 -176 208 -176
WIRE 672 -176 480 -176
WIRE 848 -176 672 -176
WIRE 1104 -176 928 -176
WIRE 1280 -176 1104 -176
WIRE 1504 -176 1360 -176
WIRE 1744 -176 1504 -176
WIRE 1504 -128 1504 -176
WIRE 1744 -128 1744 -176
WIRE 208 -96 208 -176
WIRE 672 -96 672 -176
WIRE 1104 -96 1104 -176
WIRE 1744 16 1744 -48
WIRE 208 96 208 -16
WIRE 672 96 672 -16
WIRE 1104 96 1104 -16
WIRE 1504 96 1504 -48
WIRE 128 144 96 144
WIRE 592 144 560 144
WIRE 1024 144 992 144
WIRE 1424 144 1392 144
WIRE 128 208 64 208
WIRE 592 208 528 208
WIRE 1024 208 960 208
WIRE 1424 208 1360 208
WIRE 2000 288 1936 288
WIRE 2176 288 2080 288
WIRE 96 320 96 144
WIRE 240 320 240 240
WIRE 240 320 96 320
WIRE 1392 320 1392 144
WIRE 1536 320 1536 240
WIRE 1536 320 1392 320
WIRE 560 336 560 144
WIRE 704 336 704 240
WIRE 704 336 560 336
WIRE 992 336 992 144
WIRE 1136 336 1136 240
WIRE 1136 336 992 336
WIRE 96 368 96 320
WIRE 560 368 560 336
WIRE 992 368 992 336
WIRE 1392 368 1392 320
WIRE 2048 448 2048 400
WIRE 176 464 176 240
WIRE 640 464 640 240
WIRE 640 464 176 464
WIRE 1072 464 1072 240
WIRE 1072 464 640 464
WIRE 1472 464 1472 240
WIRE 1472 464 1072 464
WIRE 1936 464 1936 288
WIRE 1936 464 1472 464
WIRE 2016 464 1936 464
WIRE 2176 480 2176 288
WIRE 2176 480 2080 480
WIRE 2240 480 2176 480
WIRE 2016 496 1936 496
WIRE 1936 560 1936 496
WIRE 2048 592 2048 512
FLAG 96 368 0
FLAG 64 208 D3
IOPIN 64 208 In
FLAG 1392 368 0
FLAG 1360 208 D0
IOPIN 1360 208 In
FLAG 992 368 0
FLAG 960 208 D1
IOPIN 960 208 In
FLAG 560 368 0
FLAG 528 208 D2
IOPIN 528 208 In
FLAG 1744 16 0
FLAG -64 -176 VREF
IOPIN -64 -176 In
FLAG 2240 480 Vout
IOPIN 2240 480 In
FLAG 1936 560 0
FLAG 2048 400 Vs
IOPIN 2048 400 In
FLAG 2048 592 Vs_
IOPIN 2048 592 In
SYMBOL SPDT 208 144 R90
SYMATTR InstName X1
SYMBOL SPDT 1504 144 R90
SYMATTR InstName X3
SYMBOL SPDT 1104 144 R90
SYMATTR InstName X2
SYMBOL SPDT 672 144 R90
SYMATTR InstName X4
SYMBOL res 1728 -144 R0
SYMATTR InstName R1
SYMATTR Value 2K
SYMBOL res 1488 -144 R0
SYMATTR InstName R2
SYMATTR Value 2K
SYMBOL res 1088 -112 R0
SYMATTR InstName R4
SYMATTR Value 2K
SYMBOL res 656 -112 R0
SYMATTR InstName R6
SYMATTR Value 2K
SYMBOL res 192 -112 R0
SYMATTR InstName R8
SYMATTR Value 2K
SYMBOL res 1376 -192 R90
WINDOW 0 0 56 VBottom 2
WINDOW 3 32 56 VTop 2
SYMATTR InstName R3
SYMATTR Value 1K
SYMBOL res 944 -192 R90
WINDOW 0 0 56 VBottom 2
WINDOW 3 32 56 VTop 2
SYMATTR InstName R5
SYMATTR Value 1K
SYMBOL res 496 -192 R90
WINDOW 0 0 56 VBottom 2
WINDOW 3 32 56 VTop 2
SYMATTR InstName R7
SYMATTR Value 1K
SYMBOL res 2096 272 R90
WINDOW 0 0 56 VBottom 2
WINDOW 3 32 56 VTop 2
SYMATTR InstName Rf
SYMATTR Value 1K
SYMBOL OpAmps\\UniversalOpAmp 2048 480 R0
SYMATTR InstName U1
