Version 4
SHEET 1 880 680
WIRE 448 128 -192 128
WIRE 448 160 128 160
WIRE 128 176 128 160
WIRE 672 176 624 176
WIRE 448 192 288 192
WIRE 288 208 288 192
FLAG 672 176 vout
IOPIN 672 176 Out
FLAG 128 176 0
FLAG -192 128 vin
IOPIN -192 128 In
FLAG 288 208 Pulse
IOPIN 288 208 In
SYMBOL SpecialFunctions\\sample 528 160 R0
SYMATTR InstName A1
