Version 4
SHEET 1 1688 1888
WIRE -544 96 -608 96
WIRE 544 96 528 96
WIRE 688 96 544 96
WIRE -320 112 -368 112
WIRE 288 112 -320 112
WIRE 400 112 352 112
WIRE -1952 128 -1952 112
WIRE -1824 128 -1824 112
WIRE -1696 128 -1696 112
WIRE -1552 128 -1552 112
WIRE -1408 128 -1408 112
WIRE -1280 128 -1280 112
WIRE -1152 128 -1152 112
WIRE -1024 128 -1024 112
WIRE -544 128 -608 128
WIRE 400 144 384 144
WIRE 288 160 288 112
WIRE 384 160 384 144
WIRE 384 160 288 160
WIRE -320 192 -320 112
WIRE -320 192 -400 192
WIRE 688 192 688 96
WIRE 688 192 672 192
WIRE 640 208 640 176
WIRE 672 208 672 192
WIRE 704 208 704 176
WIRE 736 208 736 176
WIRE -432 224 -432 192
WIRE -400 224 -400 192
WIRE -368 224 -368 208
WIRE -336 224 -336 208
WIRE 352 256 352 112
WIRE 416 256 352 256
WIRE 416 288 416 256
WIRE -368 480 -368 368
WIRE 352 480 352 448
WIRE 352 480 -368 480
WIRE -400 512 -400 368
WIRE 384 512 384 448
WIRE 384 512 -400 512
WIRE -368 608 -368 480
WIRE 336 608 -368 608
WIRE 672 608 672 352
WIRE 672 608 368 608
WIRE -400 640 -400 512
WIRE 304 640 -400 640
WIRE 704 640 704 352
WIRE 704 640 400 640
WIRE 368 688 368 608
WIRE 384 688 368 688
WIRE 400 688 400 640
WIRE 432 688 400 688
WIRE 304 704 304 640
WIRE 304 704 288 704
WIRE 288 752 288 704
WIRE 336 752 336 608
WIRE 384 752 384 688
WIRE 432 752 432 688
WIRE 352 928 336 928
WIRE 288 944 288 928
WIRE 432 944 432 928
WIRE 352 976 352 928
WIRE 384 1024 384 928
WIRE 288 1056 288 944
WIRE 320 1056 288 1056
WIRE 432 1088 432 944
WIRE 432 1088 416 1088
WIRE 208 1232 208 1216
WIRE 240 1232 240 1216
WIRE 272 1232 272 1216
WIRE 320 1232 320 1056
WIRE 352 1232 352 976
WIRE 384 1232 384 1024
WIRE 416 1232 416 1088
WIRE 304 1376 304 1328
FLAG -1152 208 0
FLAG -1152 112 vref
IOPIN -1152 112 In
FLAG 416 448 vref2
IOPIN 416 448 In
FLAG 640 176 vref
IOPIN 640 176 In
FLAG -432 192 vref
IOPIN -432 192 In
FLAG -1280 208 0
FLAG -1280 112 Vs
IOPIN -1280 112 In
FLAG -1408 208 0
FLAG -1408 112 Vs-
IOPIN -1408 112 In
FLAG 448 448 Vs
IOPIN 448 448 In
FLAG 480 448 Vs-
IOPIN 480 448 In
FLAG 432 944 D1
IOPIN 432 944 Out
FLAG 288 944 D4
IOPIN 288 944 Out
FLAG -1312 496 0
FLAG -1312 416 control
IOPIN -1312 416 Out
FLAG 192 752 control
IOPIN 192 752 Out
FLAG -1664 640 0
FLAG -1664 560 Vin
IOPIN -1664 560 In
FLAG -608 128 Vin
IOPIN -608 128 In
FLAG -1552 112 Vcc
IOPIN -1552 112 In
FLAG -1696 208 0
FLAG -1696 112 Vee
IOPIN -1696 112 In
FLAG -1552 208 0
FLAG -1312 720 0
FLAG -1312 640 Pulse
IOPIN -1312 640 In
FLAG -608 96 Pulse
IOPIN -608 96 In
FLAG 400 48 Vcc
IOPIN 400 48 In
FLAG 400 80 Vee
IOPIN 400 80 In
FLAG -1024 208 0
FLAG -1024 112 vref2
IOPIN -1024 112 In
FLAG -1824 208 0
FLAG -1824 112 Vs1
IOPIN -1824 112 In
FLAG 736 176 Vs1
IOPIN 736 176 In
FLAG -336 208 Vs1
IOPIN -336 208 In
FLAG -1952 208 0
FLAG -1952 112 VDD
IOPIN -1952 112 In
FLAG -368 208 VDD
IOPIN -368 208 In
FLAG 704 176 VDD
IOPIN 704 176 In
FLAG 304 1376 Vout
IOPIN 304 1376 Out
FLAG 272 1216 vref2
IOPIN 272 1216 In
FLAG 208 1216 vref2
IOPIN 208 1216 In
FLAG 240 1216 vref
IOPIN 240 1216 In
FLAG 240 752 vref
IOPIN 240 752 In
FLAG 352 976 D3
IOPIN 352 976 In
FLAG 384 1024 D2
IOPIN 384 1024 In
SYMBOL voltage -1152 112 R0
SYMATTR InstName vref
SYMATTR Value 5
SYMBOL voltage -1280 112 R0
SYMATTR InstName Vs
SYMATTR Value 1
SYMBOL voltage -1408 112 R0
WINDOW 123 0 0 Left 0
WINDOW 39 0 0 Left 0
SYMATTR InstName Vs-
SYMATTR Value -1
SYMBOL voltage -1312 400 R0
WINDOW 123 0 0 Left 0
WINDOW 39 0 0 Left 0
SYMATTR InstName control
SYMATTR Value PULSE(0 5 10u 1p 1p 25u 50u)
SYMBOL voltage -1664 544 R0
WINDOW 123 0 0 Left 0
WINDOW 39 0 0 Left 0
WINDOW 3 24 44 Left 2
SYMATTR Value SINE(0 5 0.1k)
SYMATTR InstName Vin
SYMBOL voltage -1552 112 R0
SYMATTR InstName Vcc
SYMATTR Value 5
SYMBOL voltage -1696 112 R0
WINDOW 123 0 0 Left 0
WINDOW 39 0 0 Left 0
SYMATTR InstName Vee
SYMATTR Value -5
SYMBOL voltage -1312 624 R0
WINDOW 123 0 0 Left 0
WINDOW 39 0 0 Left 0
SYMATTR InstName pulse_s&h
SYMATTR Value PULSE(-5 5 50n 0 1n 50u 100u)
SYMBOL S&H -464 112 R0
SYMATTR InstName S&H
SYMBOL substructor 464 96 R0
SYMATTR InstName Sub
SYMBOL voltage -1024 112 R0
WINDOW 123 0 0 Left 0
WINDOW 39 0 0 Left 0
SYMATTR InstName vref1
SYMATTR Value -5
SYMBOL voltage -1824 112 R0
SYMATTR InstName Vs1
SYMATTR Value 5
SYMBOL OUR_DAC 416 368 R270
SYMATTR InstName DAC
SYMBOL 2flashADC_T -384 288 R90
SYMATTR InstName ADC_MSB_T
SYMBOL voltage -1952 112 R0
SYMATTR InstName Vs2
SYMATTR Value 5
SYMBOL 2flashADC_T 688 272 R90
SYMATTR InstName ADC_LSB_T1
SYMBOL q1 304 1280 R90
SYMATTR InstName X2
SYMBOL latches_T 320 832 R90
SYMATTR InstName X1
TEXT -1672 776 Left 2 !.tran 10m
